[General]
cmdenv-express-mode = true
cmdenv-autoflush = true
cmdenv-status-frequency = 10000000s

#tkenv-default-config = debug
#tkenv-default-run = 1
tkenv-image-path = bitmaps

network = SimpleVeins

##########################################################
#            Simulation parameters                       #
##########################################################
debug-on-errors = true
print-undisposed = false


sim-time-limit = 6000s

**.scalar-recording = true
**.vector-recording = true

**.debug = true
**.coreDebug = true

*.playgroundSizeX = 20000m
*.playgroundSizeY = 2500m
*.playgroundSizeZ = 0m 



##########################################################
#            WorldUtility parameters                     #
##########################################################
*.world.useTorus = true
*.world.use2D = true

##########################################################
#            TraCIScenarioManager parameters             #
##########################################################
##############################################################################
#       Parameters for the ConnectionManager                                 #
##############################################################################

##########################################################
#                    WaveAppLayer                        #
##########################################################

*.car[*].appl.headerLength = 256 bit
*.ap[*].appl.headerLength = 256 bit

##########################################################
#                      Mobility                          #
##########################################################
*.car[*].mobility.x = uniform(5,20000)
*.car[*].mobility.y = 1250
*.car[*].mobility.z = 0

*.ap[0].appl.x = 1200
*.ap[1].appl.x = 10000
*.ap[2].appl.x = 18800
*.ap[*].appl.y = 1250
*.ap[*].appl.z = 0
*.ap[*].gcu.receivePower = 275m
*.ap[*].gcu.sendPower = 275m
**.numHosts = 161
**.numAPs = 3
[Config nodebug]
*.car[0].mobility.x = 5
*.car[0].mobility.angle = 0
*.car[0].appl.isTargetCar = true


